[General]
network = wsn36.WSN36_Grid_Topology
sim-time-limit = 900s
repeat = 1
seed-set = ${repetition}

# ============================================================
# METODOLOGIA TRADUZIDA PARA OMNeT++/INET + MÓDULOS C++
# ============================================================
# Cenário: 36 sensores + 1 sink
# Área: 400 m x 400 m
# Topologia: grade 6 x 6
# Espaçamento: 80 m
# Sink: centro da rede
# Tempo de simulação: 900 s
# Convergência inicial: 80 s
# Potência de transmissão: 1.2 mW
# Pacotes normais: 48 B
# Cenários: Normal, Flooding, Backoff, Blackhole e Wormhole
# ============================================================

output-scalar-file = results/${configname}-${runnumber}.sca
output-vector-file = results/${configname}-${runnumber}.vec
**.scalar-recording = true
**.vector-recording = true
record-eventlog = false

# Visualização
*.visualizer.*.interfaceTableVisualizer.displayInterfaceTables = true
*.visualizer.*.routingTableVisualizer.displayRoutingTables = false
*.visualizer.*.transportConnectionVisualizer.displayTransportConnections = true
*.visualizer.*.packetDropVisualizer.displayPacketDrops = true
*.visualizer.*.mediumVisualizer.displaySignals = true

# Área física
**.constraintAreaMinX = 0m
**.constraintAreaMinY = 0m
**.constraintAreaMinZ = 0m
**.constraintAreaMaxX = 400m
**.constraintAreaMaxY = 400m
**.constraintAreaMaxZ = 0m

# Mobilidade fixa
*.sensor[*].mobility.typename = "StationaryMobility"
*.sink.mobility.typename = "StationaryMobility"

# Sink no centro
*.sink.mobility.initialX = 200m
*.sink.mobility.initialY = 200m
*.sink.mobility.initialZ = 0m

# Grade 6 x 6, 36 sensores, espaçamento de 80 m
*.sensor[0].mobility.initialX = 0m
*.sensor[0].mobility.initialY = 0m
*.sensor[1].mobility.initialX = 80m
*.sensor[1].mobility.initialY = 0m
*.sensor[2].mobility.initialX = 160m
*.sensor[2].mobility.initialY = 0m
*.sensor[3].mobility.initialX = 240m
*.sensor[3].mobility.initialY = 0m
*.sensor[4].mobility.initialX = 320m
*.sensor[4].mobility.initialY = 0m
*.sensor[5].mobility.initialX = 400m
*.sensor[5].mobility.initialY = 0m
*.sensor[6].mobility.initialX = 0m
*.sensor[6].mobility.initialY = 80m
*.sensor[7].mobility.initialX = 80m
*.sensor[7].mobility.initialY = 80m
*.sensor[8].mobility.initialX = 160m
*.sensor[8].mobility.initialY = 80m
*.sensor[9].mobility.initialX = 240m
*.sensor[9].mobility.initialY = 80m
*.sensor[10].mobility.initialX = 320m
*.sensor[10].mobility.initialY = 80m
*.sensor[11].mobility.initialX = 400m
*.sensor[11].mobility.initialY = 80m
*.sensor[12].mobility.initialX = 0m
*.sensor[12].mobility.initialY = 160m
*.sensor[13].mobility.initialX = 80m
*.sensor[13].mobility.initialY = 160m
*.sensor[14].mobility.initialX = 160m
*.sensor[14].mobility.initialY = 160m
*.sensor[15].mobility.initialX = 240m
*.sensor[15].mobility.initialY = 160m
*.sensor[16].mobility.initialX = 320m
*.sensor[16].mobility.initialY = 160m
*.sensor[17].mobility.initialX = 400m
*.sensor[17].mobility.initialY = 160m
*.sensor[18].mobility.initialX = 0m
*.sensor[18].mobility.initialY = 240m
*.sensor[19].mobility.initialX = 80m
*.sensor[19].mobility.initialY = 240m
*.sensor[20].mobility.initialX = 160m
*.sensor[20].mobility.initialY = 240m
*.sensor[21].mobility.initialX = 240m
*.sensor[21].mobility.initialY = 240m
*.sensor[22].mobility.initialX = 320m
*.sensor[22].mobility.initialY = 240m
*.sensor[23].mobility.initialX = 400m
*.sensor[23].mobility.initialY = 240m
*.sensor[24].mobility.initialX = 0m
*.sensor[24].mobility.initialY = 320m
*.sensor[25].mobility.initialX = 80m
*.sensor[25].mobility.initialY = 320m
*.sensor[26].mobility.initialX = 160m
*.sensor[26].mobility.initialY = 320m
*.sensor[27].mobility.initialX = 240m
*.sensor[27].mobility.initialY = 320m
*.sensor[28].mobility.initialX = 320m
*.sensor[28].mobility.initialY = 320m
*.sensor[29].mobility.initialX = 400m
*.sensor[29].mobility.initialY = 320m
*.sensor[30].mobility.initialX = 0m
*.sensor[30].mobility.initialY = 400m
*.sensor[31].mobility.initialX = 80m
*.sensor[31].mobility.initialY = 400m
*.sensor[32].mobility.initialX = 160m
*.sensor[32].mobility.initialY = 400m
*.sensor[33].mobility.initialX = 240m
*.sensor[33].mobility.initialY = 400m
*.sensor[34].mobility.initialX = 320m
*.sensor[34].mobility.initialY = 400m
*.sensor[35].mobility.initialX = 400m
*.sensor[35].mobility.initialY = 400m

# Interface IEEE 802.15.4 aproximada
*.sensor[*].wlan[0].typename = "Ieee802154NarrowbandInterface"
*.sink.wlan[0].typename = "Ieee802154NarrowbandInterface"
*.sensor[*].wlan[0].radio.transmitter.power = 1.2mW
*.sink.wlan[0].radio.transmitter.power = 1.2mW
*.sensor[*].wlan[0].mac.maxFrameRetries = 10
*.sink.wlan[0].mac.maxFrameRetries = 10

# Configuração IP automática
*.configurator.addStaticRoutes = true
*.configurator.addDefaultRoutes = true
*.configurator.optimizeRoutes = true

# Aplicação normal: todos os sensores enviam UDP ao sink após 80 s
*.sink.numApps = 1
*.sink.app[0].typename = "UdpSink"
*.sink.app[0].localPort = 5000

*.sensor[*].numApps = 1
*.sensor[*].app[0].typename = "UdpBasicApp"
*.sensor[*].app[0].destAddresses = "sink"
*.sensor[*].app[0].destPort = 5000
*.sensor[*].app[0].messageLength = 48B
*.sensor[*].app[0].sendInterval = 1s
*.sensor[*].app[0].startTime = uniform(80s, 90s)
*.sensor[*].app[0].stopTime = 900s

[Config Normal]
description = "Cenário normal: 36 sensores enviando pacotes UDP de 48 B para o sink."

[Config Flooding]
extends = Normal
description = "Ataque Flooding real via módulo C++: sensor[0] gera pacotes de 119 B a cada 0.12 s entre 20 s e 250 s."
*.sensor[0].numApps = 2
*.sensor[0].app[1].typename = "MaliciousFloodingApp"
*.sensor[0].app[1].destAddress = "sink"
*.sensor[0].app[1].destPort = 5000
*.sensor[0].app[1].packetLength = 119B
*.sensor[0].app[1].sendInterval = 0.12s
*.sensor[0].app[1].startTime = 20s
*.sensor[0].app[1].stopTime = 250s

[Config Backoff]
extends = Normal
description = "Backoff manipulado aproximado via módulo C++: sensor[25] atua de modo agressivo, gerando tráfego com intervalo muito baixo."
*.sensor[25].numApps = 2
*.sensor[25].app[1].typename = "AggressiveBackoffApp"
*.sensor[25].app[1].destAddress = "sink"
*.sensor[25].app[1].destPort = 5000
*.sensor[25].app[1].packetLength = 48B
*.sensor[25].app[1].sendInterval = 0.05s
*.sensor[25].app[1].startTime = 200s
*.sensor[25].app[1].stopTime = 250s

[Config Blackhole]
extends = Normal
description = "Blackhole em nível de aplicação: sensor[5] executa módulo C++ de descarte UDP e registra blackholeDroppedPackets."
*.sensor[5].numApps = 2
*.sensor[5].app[1].typename = "BlackholeUdpDropApp"
*.sensor[5].app[1].localPort = 5000
*.sensor[5].app[1].startTime = 200s
*.sensor[5].app[1].stopTime = 250s

# Para forçar parte do tráfego a passar pelo nó malicioso em nível de aplicação,
# alguns sensores enviam ao sensor[5] durante o experimento Blackhole.
# Assim, o sensor[5] descarta os pacotes recebidos e isso aparece nas métricas.
*.sensor[0..4].app[0].destAddresses = "sensor[5]"
*.sensor[6..11].app[0].destAddresses = "sensor[5]"

[Config Wormhole]
extends = Normal
description = "Wormhole via dois endpoints C++: sensor[25] e sensor[15] criam um túnel UDP artificial e encaminham tráfego ao sink."
*.sensor[25].numApps = 2
*.sensor[25].app[1].typename = "WormholeEndpointApp"
*.sensor[25].app[1].peerAddress = "sensor[15]"
*.sensor[25].app[1].peerPort = 7000
*.sensor[25].app[1].localPort = 7000
*.sensor[25].app[1].finalDestAddress = "sink"
*.sensor[25].app[1].finalDestPort = 5000
*.sensor[25].app[1].packetLength = 48B
*.sensor[25].app[1].sendInterval = 0.07s
*.sensor[25].app[1].startTime = 200s
*.sensor[25].app[1].stopTime = 250s
*.sensor[25].app[1].generateAttackTraffic = true

*.sensor[15].numApps = 2
*.sensor[15].app[1].typename = "WormholeEndpointApp"
*.sensor[15].app[1].peerAddress = "sensor[25]"
*.sensor[15].app[1].peerPort = 7000
*.sensor[15].app[1].localPort = 7000
*.sensor[15].app[1].finalDestAddress = "sink"
*.sensor[15].app[1].finalDestPort = 5000
*.sensor[15].app[1].packetLength = 48B
*.sensor[15].app[1].sendInterval = 0.07s
*.sensor[15].app[1].startTime = 200s
*.sensor[15].app[1].stopTime = 250s
*.sensor[15].app[1].generateAttackTraffic = false
